Circuit: * C:\Users\rachidox\Home\github\pulsar\circuits\d-flip-flop.asc

WARNING: Less than two connections to node TESTPULSE.  This node is used by V3.
Direct Newton iteration for .op point succeeded.

Date: Tue Dec 15 18:51:01 2020
Total elapsed time: 0.139 seconds.

tnom = 27
temp = 27
method = modified trap
totiter = 7306
traniter = 7290
tranpoints = 2701
accept = 2089
rejected = 612
matrix size = 25
fillins = 16
solver = Normal
Matrix Compiler1: 2.38 KB object code size  0.3/0.2/[0.1]
Matrix Compiler2: off  [0.2]/0.2/0.2

