Circuit: * C:\Users\rachidox\Home\github\pulsar\circuits\pulsar.asc

WARNING: Less than two connections to node X1:TESTV+.  This node is used by V:X1:1.
WARNING: Less than two connections to node X1:TESTCLK.  This node is used by V:X1:2.
WARNING: Less than two connections to node X1:TESTPULSE.  This node is used by V:X1:3.
WARNING: Less than two connections to node X2:TESTV+.  This node is used by V:X2:1.
WARNING: Less than two connections to node X2:TESTCLK.  This node is used by V:X2:2.
WARNING: Less than two connections to node X2:TESTPULSE.  This node is used by V:X2:3.
WARNING: Less than two connections to node X3:TESTV+.  This node is used by V:X3:1.
WARNING: Less than two connections to node X3:TESTCLK.  This node is used by V:X3:2.
WARNING: Less than two connections to node X3:TESTPULSE.  This node is used by V:X3:3.
WARNING: Less than two connections to node X4:TESTV+.  This node is used by V:X4:1.
WARNING: Less than two connections to node X4:TESTCLK.  This node is used by V:X4:2.
WARNING: Less than two connections to node X4:TESTPULSE.  This node is used by V:X4:3.
WARNING: Less than two connections to node X5:TESTV+.  This node is used by V:X5:1.
WARNING: Less than two connections to node X5:TESTCLK.  This node is used by V:X5:2.
WARNING: Less than two connections to node X5:TESTPULSE.  This node is used by V:X5:3.
WARNING: Less than two connections to node X6:TESTV+.  This node is used by V:X6:1.
WARNING: Less than two connections to node X6:TESTCLK.  This node is used by V:X6:2.
WARNING: Less than two connections to node X6:TESTPULSE.  This node is used by V:X6:3.
WARNING: Less than two connections to node X7:TESTV+.  This node is used by V:X7:1.
WARNING: Less than two connections to node X7:TESTCLK.  This node is used by V:X7:2.
WARNING: Less than two connections to node X7:TESTPULSE.  This node is used by V:X7:3.
WARNING: Less than two connections to node X8:TESTV+.  This node is used by V:X8:1.
WARNING: Less than two connections to node X8:TESTCLK.  This node is used by V:X8:2.
WARNING: Less than two connections to node X8:TESTPULSE.  This node is used by V:X8:3.
WARNING: Less than two connections to node X9:TESTV+.  This node is used by V:X9:1.
WARNING: Less than two connections to node X9:TESTCLK.  This node is used by V:X9:2.
WARNING: Less than two connections to node X9:TESTPULSE.  This node is used by V:X9:3.
WARNING: Less than two connections to node X10:TESTV+.  This node is used by V:X10:1.
WARNING: Less than two connections to node X10:TESTCLK.  This node is used by V:X10:2.
WARNING: Less than two connections to node X10:TESTPULSE.  This node is used by V:X10:3.
WARNING: Less than two connections to node X11:TESTV+.  This node is used by V:X11:1.
WARNING: Less than two connections to node X11:TESTCLK.  This node is used by V:X11:2.
WARNING: Less than two connections to node X11:TESTPULSE.  This node is used by V:X11:3.
WARNING: Less than two connections to node X13:TESTV+.  This node is used by V:X13:1.
WARNING: Less than two connections to node X13:TESTCLK.  This node is used by V:X13:2.
WARNING: Less than two connections to node X13:TESTPULSE.  This node is used by V:X13:3.
Direct Newton iteration for .op point succeeded.
Heightened Def Con from 0.003 +++++to 0.003
Heightened Def Con from 0.003 to 0.003

Date: Wed Dec 16 17:07:34 2020
Total elapsed time: 1.402 seconds.

tnom = 27
temp = 27
method = modified trap
totiter = 43347
traniter = 43326
tranpoints = 14528
accept = 10475
rejected = 4060
matrix size = 348
fillins = 324
solver = Normal
Thread vector: 12.8/7.1[5] 6.6/4.1[5] 2.3/2.6[1] 1.1/2.2[1]  2592/500
Matrix Compiler1: 39.59 KB object code size  8.2/3.8/[2.2]
Matrix Compiler2: 33.70 KB object code size  2.7/3.4/[1.5]

